Circuit: * C:\Users\vbogd\OneDrive\Documents\rct_tower_battery\simulations\rct_battery.asc

Direct Newton iteration for .op point succeeded.

Date: Fri Oct 20 11:47:34 2023
Total elapsed time: 15.982 seconds.

tnom = 27
temp = 27
method = modified trap
totiter = 1800328
traniter = 1800302
tranpoints = 900118
accept = 900093
rejected = 25
matrix size = 15
fillins = 0
solver = Normal
Matrix Compiler1: 506 bytes object code size  0.2/0.2/[0.2]
Matrix Compiler2: off  [0.2]/0.3/0.2

