Circuit: * C:\Users\vbogd\OneDrive\Documents\rct_tower_battery\simulations\rct_battery.asc

Direct Newton iteration for .op point succeeded.
Heightened Def Con from 86400.2 to 86400.2

Date: Fri Oct 20 13:01:45 2023
Total elapsed time: 11.508 seconds.

tnom = 27
temp = 125
method = modified trap
totiter = 1800596
traniter = 1800575
tranpoints = 900175
accept = 900130
rejected = 46
matrix size = 15
fillins = 0
solver = Normal
Matrix Compiler1: 506 bytes object code size  0.1/0.1/[0.0]
Matrix Compiler2: off  [0.1]/0.1/0.1

